OPT_V10/Two_days_MYC3_SOS/powerflow_results_t48.txt
Pandapower Network Debug Info
==================================================

BUS:
       vm_pu  va_degree      p_mw    q_mvar
0   0.992864   0.131148  0.000872  0.000816
1   0.988193   0.225045  0.001508  0.002025
2   0.983881   0.324632  0.002010  0.003435
3   0.989069   0.208539  0.002532  0.003961
4   0.999889   0.000592  0.010852  0.009340
5   0.999876   0.000626  0.010615  0.009712
6   0.999867   0.000634  0.011294  0.009079
7   0.999931   0.000478  0.000000  0.000000
8   0.999931   0.000484  0.000000  0.000000
9   1.000000   0.000000 -0.039837 -0.043473
10  1.000000   0.000006  0.000000  0.000000
--------------------------------------------------

LINE:
   p_from_mw  q_from_mvar   p_to_mw  q_to_mvar         pl_mw       ql_mvar  i_from_ka   i_to_ka      i_ka  vm_from_pu  va_from_degree  vm_to_pu  va_to_degree  loading_percent
0   0.039827     0.039473 -0.039824  -0.039471  3.075542e-06  2.398050e-06   0.002158  0.002158  0.002158    1.000000        0.000006  0.999931      0.000478         0.938387
1   0.032763     0.028132 -0.032761  -0.028131  1.442211e-06  1.124516e-06   0.001662  0.001662  0.001662    0.999931        0.000478  0.999889      0.000592         0.722713
2   0.007051     0.010339 -0.006978  -0.010282  7.325992e-05  5.712196e-05   0.018064  0.018064  0.018064    0.999931        0.000484  0.992864      0.131148         7.854011
3  -0.021909    -0.018790  0.021909   0.018790  2.881664e-07  2.246881e-07   0.001111  0.001111  0.001111    0.999876        0.000626  0.999889      0.000592         0.483076
4  -0.011294    -0.009079  0.011294   0.009079  1.027215e-07  8.009365e-08   0.000558  0.000558  0.000558    0.999867        0.000634  0.999876      0.000626         0.242531
5  -0.003533    -0.005472  0.003559   0.005492  2.570539e-05  2.004291e-05   0.009514  0.009514  0.009514    0.988193        0.225045  0.992864      0.131148         4.136570
6  -0.002532    -0.003961  0.002547   0.003973  1.508617e-05  1.176294e-05   0.006861  0.006861  0.006861    0.989069        0.208539  0.992864      0.131148         2.983015
7  -0.002010    -0.003435  0.002025   0.003447  1.480419e-05  1.154307e-05   0.005839  0.005839  0.005839    0.983881        0.324632  0.988193      0.225045         2.538733
--------------------------------------------------

TRAFO:
    p_hv_mw  q_hv_mvar   p_lv_mw  q_lv_mvar    pl_mw  ql_mvar   i_hv_ka   i_lv_ka  vm_hv_pu  va_hv_degree  vm_lv_pu  va_lv_degree  loading_percent
0  0.007061   0.011339 -0.007051  -0.010339  0.00001    0.001  0.000514  0.018064  0.999931      0.000478  0.999931      0.000484         0.133585
1  0.039837   0.043473 -0.039827  -0.039473  0.00001    0.004  0.000486  0.002158  1.000000      0.000000  1.000000      0.000006         0.147413
--------------------------------------------------
